<?xml version="1.0" encoding="UTF-8"?>

<!-- generated on Wed May 21 12:35:20 2014 by SUMO netconvert Version 0.20.0
<?xml version="1.0" encoding="UTF-8"?>

<configuration xmlns:xsi="http://www.w3.org/2001/XMLSchema-instance" xsi:noNamespaceSchemaLocation="http://sumo-sim.org/xsd/netconvertConfiguration.xsd">

</configuration>
-->

<net version="0.13" xmlns:xsi="http://www.w3.org/2001/XMLSchema-instance" xsi:noNamespaceSchemaLocation="http://sumo-sim.org/xsd/net_file.xsd">

    <location netOffset="501.00,251.00" convBoundary="0.00,0.00,1002.00,502.00" origBoundary="-501.00,-251.00,501.00,251.00" projParameter="!"/>

    <edge id=":xp1_0" function="internal">
        <lane id=":xp1_0_0" index="0" speed="13.90" length="5.00" shape="289.35,255.75 289.16,254.39 288.58,253.42 287.61,252.84 286.25,252.65"/>
    </edge>
    <edge id=":xp1_1" function="internal">
        <lane id=":xp1_1_0" index="0" speed="13.90" length="9.50" shape="289.35,255.75 289.35,246.25"/>
    </edge>
    <edge id=":xp1_2" function="internal">
        <lane id=":xp1_2_0" index="0" speed="13.90" length="3.18" shape="289.35,255.75 289.75,252.95 289.93,252.65"/>
    </edge>
    <edge id=":xp1_3" function="internal">
        <lane id=":xp1_3_0" index="0" speed="13.90" length="2.41" shape="289.35,255.75 290.17,254.51 291.00,254.10"/>
    </edge>
    <edge id=":xp1_16" function="internal">
        <lane id=":xp1_16_0" index="0" speed="13.90" length="7.14" shape="289.93,252.65 290.95,250.95 292.95,249.75 295.75,249.35"/>
    </edge>
    <edge id=":xp1_17" function="internal">
        <lane id=":xp1_17_0" index="0" speed="13.90" length="2.41" shape="291.00,254.10 291.82,254.51 292.65,255.75"/>
    </edge>
    <edge id=":xp1_4" function="internal">
        <lane id=":xp1_4_0" index="0" speed="13.90" length="5.00" shape="295.75,252.65 294.39,252.84 293.42,253.43 292.84,254.39 292.65,255.75"/>
    </edge>
    <edge id=":xp1_5" function="internal">
        <lane id=":xp1_5_0" index="0" speed="13.90" length="9.50" shape="295.75,252.65 286.25,252.65"/>
    </edge>
    <edge id=":xp1_6" function="internal">
        <lane id=":xp1_6_0" index="0" speed="13.90" length="3.18" shape="295.75,252.65 292.95,252.25 292.65,252.07"/>
    </edge>
    <edge id=":xp1_7" function="internal">
        <lane id=":xp1_7_0" index="0" speed="13.90" length="2.41" shape="295.75,252.65 294.51,251.82 294.10,251.00"/>
    </edge>
    <edge id=":xp1_18" function="internal">
        <lane id=":xp1_18_0" index="0" speed="13.90" length="7.14" shape="292.65,252.07 290.95,251.05 289.75,249.05 289.35,246.25"/>
    </edge>
    <edge id=":xp1_19" function="internal">
        <lane id=":xp1_19_0" index="0" speed="13.90" length="2.41" shape="294.10,251.00 294.51,250.18 295.75,249.35"/>
    </edge>
    <edge id=":xp1_8" function="internal">
        <lane id=":xp1_8_0" index="0" speed="13.90" length="5.00" shape="292.65,246.25 292.84,247.61 293.42,248.58 294.39,249.16 295.75,249.35"/>
    </edge>
    <edge id=":xp1_9" function="internal">
        <lane id=":xp1_9_0" index="0" speed="13.90" length="9.50" shape="292.65,246.25 292.65,255.75"/>
    </edge>
    <edge id=":xp1_10" function="internal">
        <lane id=":xp1_10_0" index="0" speed="13.90" length="3.18" shape="292.65,246.25 292.25,249.05 292.07,249.35"/>
    </edge>
    <edge id=":xp1_11" function="internal">
        <lane id=":xp1_11_0" index="0" speed="13.90" length="2.41" shape="292.65,246.25 291.83,247.49 291.00,247.90"/>
    </edge>
    <edge id=":xp1_20" function="internal">
        <lane id=":xp1_20_0" index="0" speed="13.90" length="7.14" shape="292.07,249.35 291.05,251.05 289.05,252.25 286.25,252.65"/>
    </edge>
    <edge id=":xp1_21" function="internal">
        <lane id=":xp1_21_0" index="0" speed="13.90" length="2.41" shape="291.00,247.90 290.18,247.49 289.35,246.25"/>
    </edge>
    <edge id=":xp1_12" function="internal">
        <lane id=":xp1_12_0" index="0" speed="13.90" length="5.00" shape="286.25,249.35 287.61,249.16 288.58,248.57 289.16,247.61 289.35,246.25"/>
    </edge>
    <edge id=":xp1_13" function="internal">
        <lane id=":xp1_13_0" index="0" speed="13.90" length="9.50" shape="286.25,249.35 295.75,249.35"/>
    </edge>
    <edge id=":xp1_14" function="internal">
        <lane id=":xp1_14_0" index="0" speed="13.90" length="3.18" shape="286.25,249.35 289.05,249.75 289.35,249.93"/>
    </edge>
    <edge id=":xp1_15" function="internal">
        <lane id=":xp1_15_0" index="0" speed="13.90" length="2.41" shape="286.25,249.35 287.49,250.18 287.90,251.00"/>
    </edge>
    <edge id=":xp1_22" function="internal">
        <lane id=":xp1_22_0" index="0" speed="13.90" length="7.14" shape="289.35,249.93 291.05,250.95 292.25,252.95 292.65,255.75"/>
    </edge>
    <edge id=":xp1_23" function="internal">
        <lane id=":xp1_23_0" index="0" speed="13.90" length="2.41" shape="287.90,251.00 287.49,251.82 286.25,252.65"/>
    </edge>
    <edge id=":xp1north_0" function="internal">
        <lane id=":xp1north_0_0" index="0" speed="13.90" length="0.10" shape="289.35,501.00 289.35,501.00"/>
    </edge>
    <edge id=":xp1north_1" function="internal">
        <lane id=":xp1north_1_0" index="0" speed="13.90" length="2.41" shape="289.35,501.00 290.17,499.76 291.00,499.35"/>
    </edge>
    <edge id=":xp1north_4" function="internal">
        <lane id=":xp1north_4_0" index="0" speed="13.90" length="2.41" shape="291.00,499.35 291.82,499.76 292.65,501.00"/>
    </edge>
    <edge id=":xp1north_2" function="internal">
        <lane id=":xp1north_2_0" index="0" speed="13.90" length="0.10" shape="292.65,501.00 292.65,501.00"/>
    </edge>
    <edge id=":xp1north_3" function="internal">
        <lane id=":xp1north_3_0" index="0" speed="13.90" length="2.41" shape="292.65,501.00 291.83,502.24 291.00,502.65"/>
    </edge>
    <edge id=":xp1north_5" function="internal">
        <lane id=":xp1north_5_0" index="0" speed="13.90" length="2.41" shape="291.00,502.65 290.18,502.24 289.35,501.00"/>
    </edge>
    <edge id=":xp1north_out_0" function="internal">
        <lane id=":xp1north_out_0_0" index="0" speed="13.90" length="4.82" shape="292.65,502.00 291.83,503.24 291.00,503.65 290.18,503.24 289.35,502.00"/>
    </edge>
    <edge id=":xp1north_turn_0" function="internal">
        <lane id=":xp1north_turn_0_0" index="0" speed="13.90" length="0.10" shape="289.35,376.00 289.35,376.00"/>
    </edge>
    <edge id=":xp1south_0" function="internal">
        <lane id=":xp1south_0_0" index="0" speed="13.90" length="11.48" shape="289.35,16.27 289.11,11.37 288.40,8.33 287.22,7.16 285.57,7.86"/>
    </edge>
    <edge id=":xp1south_1" function="internal">
        <lane id=":xp1south_1_0" index="0" speed="13.90" length="13.90" shape="289.35,16.27 289.35,12.69 289.35,9.32 289.35,5.95 289.35,2.37"/>
    </edge>
    <edge id=":xp1south_2" function="internal">
        <lane id=":xp1south_2_0" index="0" speed="13.90" length="2.41" shape="289.35,16.27 290.17,15.03 291.00,14.62"/>
    </edge>
    <edge id=":xp1south_9" function="internal">
        <lane id=":xp1south_9_0" index="0" speed="13.90" length="2.41" shape="291.00,14.62 291.82,15.03 292.65,16.27"/>
    </edge>
    <edge id=":xp1south_3" function="internal">
        <lane id=":xp1south_3_0" index="0" speed="13.90" length="9.10" shape="296.35,15.39 294.73,12.67 293.58,11.91 292.88,13.11 292.65,16.27"/>
    </edge>
    <edge id=":xp1south_4" function="internal">
        <lane id=":xp1south_4_0" index="0" speed="13.90" length="15.18" shape="296.35,15.39 293.47,10.51 290.72,7.63 288.08,6.75 285.57,7.86"/>
    </edge>
    <edge id=":xp1south_5" function="internal">
        <lane id=":xp1south_5_0" index="0" speed="13.90" length="14.98" shape="296.35,15.39 294.31,12.17 292.01,9.08 290.13,5.88 289.35,2.37"/>
    </edge>
    <edge id=":xp1south_6" function="internal">
        <lane id=":xp1south_6_0" index="0" speed="13.90" length="13.90" shape="292.65,2.37 292.65,5.95 292.65,9.32 292.65,12.69 292.65,16.27"/>
    </edge>
    <edge id=":xp1south_7" function="internal">
        <lane id=":xp1south_7_0" index="0" speed="13.90" length="4.06" shape="292.65,2.37 292.21,2.48 290.88,3.44 289.35,4.67"/>
    </edge>
    <edge id=":xp1south_8" function="internal">
        <lane id=":xp1south_8_0" index="0" speed="13.90" length="2.41" shape="292.65,2.37 291.83,3.61 291.00,4.02"/>
    </edge>
    <edge id=":xp1south_10" function="internal">
        <lane id=":xp1south_10_0" index="0" speed="13.90" length="4.94" shape="289.35,4.67 288.67,5.23 285.57,7.86"/>
    </edge>
    <edge id=":xp1south_11" function="internal">
        <lane id=":xp1south_11_0" index="0" speed="13.90" length="2.41" shape="291.00,4.02 290.18,3.61 289.35,2.37"/>
    </edge>
    <edge id=":xp1south_out_0" function="internal">
        <lane id=":xp1south_out_0_0" index="0" speed="13.90" length="4.82" shape="289.35,0.00 290.17,-1.24 291.00,-1.65 291.82,-1.24 292.65,0.00"/>
    </edge>
    <edge id=":xp1south_turn_0" function="internal">
        <lane id=":xp1south_turn_0_0" index="0" speed="13.90" length="0.10" shape="292.65,126.00 292.65,126.00"/>
    </edge>
    <edge id=":xp1turn_0" function="internal">
        <lane id=":xp1turn_0_0" index="0" speed="13.90" length="6.58" shape="417.47,252.65 410.89,252.65"/>
    </edge>
    <edge id=":xp1turn_1" function="internal">
        <lane id=":xp1turn_1_0" index="0" speed="13.90" length="5.95" shape="417.47,252.65 416.27,252.42 415.15,251.74 414.11,250.59 413.15,248.99"/>
    </edge>
    <edge id=":xp1west_0" function="internal">
        <lane id=":xp1west_0_0" index="0" speed="13.90" length="5.00" shape="11.25,252.65 6.25,252.65"/>
    </edge>
    <edge id=":xp1west_1" function="internal">
        <lane id=":xp1west_1_0" index="0" speed="13.90" length="2.41" shape="11.25,252.65 10.01,251.82 9.60,251.00"/>
    </edge>
    <edge id=":xp1west_6" function="internal">
        <lane id=":xp1west_6_0" index="0" speed="13.90" length="2.41" shape="9.60,251.00 10.01,250.18 11.25,249.35"/>
    </edge>
    <edge id=":xp1west_2" function="internal">
        <lane id=":xp1west_2_0" index="0" speed="13.90" length="6.99" shape="9.84,245.56 8.28,247.22 7.99,248.40 8.98,249.11 11.25,249.35"/>
    </edge>
    <edge id=":xp1west_3" function="internal">
        <lane id=":xp1west_3_0" index="0" speed="13.90" length="7.95" shape="9.84,245.56 6.25,252.65"/>
    </edge>
    <edge id=":xp1west_4" function="internal">
        <lane id=":xp1west_4_0" index="0" speed="13.90" length="5.00" shape="6.25,249.35 11.25,249.35"/>
    </edge>
    <edge id=":xp1west_5" function="internal">
        <lane id=":xp1west_5_0" index="0" speed="13.90" length="2.41" shape="6.25,249.35 7.48,250.18 7.90,251.00"/>
    </edge>
    <edge id=":xp1west_7" function="internal">
        <lane id=":xp1west_7_0" index="0" speed="13.90" length="2.41" shape="7.90,251.00 7.48,251.82 6.25,252.65"/>
    </edge>
    <edge id=":xp1west_out_0" function="internal">
        <lane id=":xp1west_out_0_0" index="0" speed="13.90" length="4.82" shape="0.00,252.65 -1.24,251.82 -1.65,251.00 -1.24,250.18 0.00,249.35"/>
    </edge>
    <edge id=":xp1west_turn_0" function="internal">
        <lane id=":xp1west_turn_0_0" index="0" speed="13.90" length="0.10" shape="166.00,249.35 166.00,249.35"/>
    </edge>
    <edge id=":xp2_0" function="internal">
        <lane id=":xp2_0_0" index="0" speed="13.90" length="5.00" shape="709.35,255.75 709.16,254.39 708.58,253.42 707.61,252.84 706.25,252.65"/>
    </edge>
    <edge id=":xp2_1" function="internal">
        <lane id=":xp2_1_0" index="0" speed="13.90" length="9.50" shape="709.35,255.75 709.35,246.25"/>
    </edge>
    <edge id=":xp2_2" function="internal">
        <lane id=":xp2_2_0" index="0" speed="13.90" length="3.18" shape="709.35,255.75 709.75,252.95 709.93,252.65"/>
    </edge>
    <edge id=":xp2_3" function="internal">
        <lane id=":xp2_3_0" index="0" speed="13.90" length="2.41" shape="709.35,255.75 710.18,254.51 711.00,254.10"/>
    </edge>
    <edge id=":xp2_16" function="internal">
        <lane id=":xp2_16_0" index="0" speed="13.90" length="7.14" shape="709.93,252.65 710.95,250.95 712.95,249.75 715.75,249.35"/>
    </edge>
    <edge id=":xp2_17" function="internal">
        <lane id=":xp2_17_0" index="0" speed="13.90" length="2.41" shape="711.00,254.10 711.83,254.51 712.65,255.75"/>
    </edge>
    <edge id=":xp2_4" function="internal">
        <lane id=":xp2_4_0" index="0" speed="13.90" length="5.00" shape="715.75,252.65 714.39,252.84 713.43,253.43 712.84,254.39 712.65,255.75"/>
    </edge>
    <edge id=":xp2_5" function="internal">
        <lane id=":xp2_5_0" index="0" speed="13.90" length="9.50" shape="715.75,252.65 706.25,252.65"/>
    </edge>
    <edge id=":xp2_6" function="internal">
        <lane id=":xp2_6_0" index="0" speed="13.90" length="3.18" shape="715.75,252.65 712.95,252.25 712.65,252.07"/>
    </edge>
    <edge id=":xp2_7" function="internal">
        <lane id=":xp2_7_0" index="0" speed="13.90" length="2.41" shape="715.75,252.65 714.51,251.82 714.10,251.00"/>
    </edge>
    <edge id=":xp2_18" function="internal">
        <lane id=":xp2_18_0" index="0" speed="13.90" length="7.14" shape="712.65,252.07 710.95,251.05 709.75,249.05 709.35,246.25"/>
    </edge>
    <edge id=":xp2_19" function="internal">
        <lane id=":xp2_19_0" index="0" speed="13.90" length="2.41" shape="714.10,251.00 714.51,250.18 715.75,249.35"/>
    </edge>
    <edge id=":xp2_8" function="internal">
        <lane id=":xp2_8_0" index="0" speed="13.90" length="5.00" shape="712.65,246.25 712.84,247.61 713.42,248.58 714.39,249.16 715.75,249.35"/>
    </edge>
    <edge id=":xp2_9" function="internal">
        <lane id=":xp2_9_0" index="0" speed="13.90" length="9.50" shape="712.65,246.25 712.65,255.75"/>
    </edge>
    <edge id=":xp2_10" function="internal">
        <lane id=":xp2_10_0" index="0" speed="13.90" length="3.18" shape="712.65,246.25 712.25,249.05 712.07,249.35"/>
    </edge>
    <edge id=":xp2_11" function="internal">
        <lane id=":xp2_11_0" index="0" speed="13.90" length="2.41" shape="712.65,246.25 711.82,247.49 711.00,247.90"/>
    </edge>
    <edge id=":xp2_20" function="internal">
        <lane id=":xp2_20_0" index="0" speed="13.90" length="7.14" shape="712.07,249.35 711.05,251.05 709.05,252.25 706.25,252.65"/>
    </edge>
    <edge id=":xp2_21" function="internal">
        <lane id=":xp2_21_0" index="0" speed="13.90" length="2.41" shape="711.00,247.90 710.17,247.49 709.35,246.25"/>
    </edge>
    <edge id=":xp2_12" function="internal">
        <lane id=":xp2_12_0" index="0" speed="13.90" length="5.00" shape="706.25,249.35 707.61,249.16 708.57,248.57 709.16,247.61 709.35,246.25"/>
    </edge>
    <edge id=":xp2_13" function="internal">
        <lane id=":xp2_13_0" index="0" speed="13.90" length="9.50" shape="706.25,249.35 715.75,249.35"/>
    </edge>
    <edge id=":xp2_14" function="internal">
        <lane id=":xp2_14_0" index="0" speed="13.90" length="3.18" shape="706.25,249.35 709.05,249.75 709.35,249.93"/>
    </edge>
    <edge id=":xp2_15" function="internal">
        <lane id=":xp2_15_0" index="0" speed="13.90" length="2.41" shape="706.25,249.35 707.49,250.18 707.90,251.00"/>
    </edge>
    <edge id=":xp2_22" function="internal">
        <lane id=":xp2_22_0" index="0" speed="13.90" length="7.14" shape="709.35,249.93 711.05,250.95 712.25,252.95 712.65,255.75"/>
    </edge>
    <edge id=":xp2_23" function="internal">
        <lane id=":xp2_23_0" index="0" speed="13.90" length="2.41" shape="707.90,251.00 707.49,251.82 706.25,252.65"/>
    </edge>
    <edge id=":xp2east_0" function="internal">
        <lane id=":xp2east_0_0" index="0" speed="13.90" length="0.10" shape="1001.00,252.65 1001.00,252.65"/>
    </edge>
    <edge id=":xp2east_1" function="internal">
        <lane id=":xp2east_1_0" index="0" speed="13.90" length="2.41" shape="1001.00,252.65 999.76,251.82 999.35,251.00"/>
    </edge>
    <edge id=":xp2east_4" function="internal">
        <lane id=":xp2east_4_0" index="0" speed="13.90" length="2.41" shape="999.35,251.00 999.76,250.18 1001.00,249.35"/>
    </edge>
    <edge id=":xp2east_2" function="internal">
        <lane id=":xp2east_2_0" index="0" speed="13.90" length="0.10" shape="1001.00,249.35 1001.00,249.35"/>
    </edge>
    <edge id=":xp2east_3" function="internal">
        <lane id=":xp2east_3_0" index="0" speed="13.90" length="2.41" shape="1001.00,249.35 1002.24,250.18 1002.65,251.00"/>
    </edge>
    <edge id=":xp2east_5" function="internal">
        <lane id=":xp2east_5_0" index="0" speed="13.90" length="2.41" shape="1002.65,251.00 1002.24,251.82 1001.00,252.65"/>
    </edge>
    <edge id=":xp2east_out_0" function="internal">
        <lane id=":xp2east_out_0_0" index="0" speed="13.90" length="4.82" shape="1002.00,249.35 1003.24,250.18 1003.65,251.00 1003.24,251.82 1002.00,252.65"/>
    </edge>
    <edge id=":xp2east_turn_0" function="internal">
        <lane id=":xp2east_turn_0_0" index="0" speed="13.90" length="0.10" shape="836.00,252.65 836.00,252.65"/>
    </edge>
    <edge id=":xp2north_0" function="internal">
        <lane id=":xp2north_0_0" index="0" speed="13.90" length="0.10" shape="709.35,501.00 709.35,501.00"/>
    </edge>
    <edge id=":xp2north_1" function="internal">
        <lane id=":xp2north_1_0" index="0" speed="13.90" length="2.41" shape="709.35,501.00 710.18,499.76 711.00,499.35"/>
    </edge>
    <edge id=":xp2north_4" function="internal">
        <lane id=":xp2north_4_0" index="0" speed="13.90" length="2.41" shape="711.00,499.35 711.83,499.76 712.65,501.00"/>
    </edge>
    <edge id=":xp2north_2" function="internal">
        <lane id=":xp2north_2_0" index="0" speed="13.90" length="0.10" shape="712.65,501.00 712.65,501.00"/>
    </edge>
    <edge id=":xp2north_3" function="internal">
        <lane id=":xp2north_3_0" index="0" speed="13.90" length="2.41" shape="712.65,501.00 711.82,502.24 711.00,502.65"/>
    </edge>
    <edge id=":xp2north_5" function="internal">
        <lane id=":xp2north_5_0" index="0" speed="13.90" length="2.41" shape="711.00,502.65 710.17,502.24 709.35,501.00"/>
    </edge>
    <edge id=":xp2north_out_0" function="internal">
        <lane id=":xp2north_out_0_0" index="0" speed="13.90" length="4.82" shape="712.65,502.00 711.82,503.24 711.00,503.65 710.17,503.24 709.35,502.00"/>
    </edge>
    <edge id=":xp2north_turn_0" function="internal">
        <lane id=":xp2north_turn_0_0" index="0" speed="13.90" length="0.10" shape="709.35,376.00 709.35,376.00"/>
    </edge>
    <edge id=":xp2south_0" function="internal">
        <lane id=":xp2south_0_0" index="0" speed="13.90" length="0.10" shape="709.35,1.00 709.35,1.00"/>
    </edge>
    <edge id=":xp2south_1" function="internal">
        <lane id=":xp2south_1_0" index="0" speed="13.90" length="2.41" shape="709.35,1.00 710.18,-0.24 711.00,-0.65"/>
    </edge>
    <edge id=":xp2south_4" function="internal">
        <lane id=":xp2south_4_0" index="0" speed="13.90" length="2.41" shape="711.00,-0.65 711.83,-0.24 712.65,1.00"/>
    </edge>
    <edge id=":xp2south_2" function="internal">
        <lane id=":xp2south_2_0" index="0" speed="13.90" length="0.10" shape="712.65,1.00 712.65,1.00"/>
    </edge>
    <edge id=":xp2south_3" function="internal">
        <lane id=":xp2south_3_0" index="0" speed="13.90" length="2.41" shape="712.65,1.00 711.82,2.24 711.00,2.65"/>
    </edge>
    <edge id=":xp2south_5" function="internal">
        <lane id=":xp2south_5_0" index="0" speed="13.90" length="2.41" shape="711.00,2.65 710.17,2.24 709.35,1.00"/>
    </edge>
    <edge id=":xp2south_out_0" function="internal">
        <lane id=":xp2south_out_0_0" index="0" speed="13.90" length="4.82" shape="709.35,0.00 710.18,-1.24 711.00,-1.65 711.83,-1.24 712.65,0.00"/>
    </edge>
    <edge id=":xp2south_turn_0" function="internal">
        <lane id=":xp2south_turn_0_0" index="0" speed="13.90" length="0.10" shape="712.65,126.00 712.65,126.00"/>
    </edge>
    <edge id=":xp2turn_0" function="internal">
        <lane id=":xp2turn_0_0" index="0" speed="13.90" length="0.10" shape="586.00,249.35 586.00,249.35"/>
    </edge>

    <edge id="directoneA" from="xp1turn" to="xp1south" priority="-1">
        <lane id="directoneA_0" index="0" speed="13.90" length="261.17" shape="365.15,248.99 296.35,15.39"/>
    </edge>
    <edge id="directoneB" from="xp1south" to="xp1west" priority="-1">
        <lane id="directoneB_0" index="0" speed="13.90" length="364.04" shape="285.57,7.86 9.84,245.56"/>
    </edge>
    <edge id="xp1-xp1north" from="xp1" to="xp1north" priority="-1">
        <lane id="xp1-xp1north_0" index="0" speed="13.90" length="245.25" shape="292.65,255.75 292.65,501.00"/>
    </edge>
    <edge id="xp1-xp1south" from="xp1" to="xp1south" priority="-1">
        <lane id="xp1-xp1south_0" index="0" speed="13.90" length="229.98" shape="289.35,246.25 289.35,16.27"/>
    </edge>
    <edge id="xp1-xp1west" from="xp1" to="xp1west" priority="-1">
        <lane id="xp1-xp1west_0" index="0" speed="13.90" length="275.00" shape="286.25,252.65 11.25,252.65"/>
    </edge>
    <edge id="xp1-xp2turn" from="xp1" to="xp2turn" priority="-1">
        <lane id="xp1-xp2turn_0" index="0" speed="13.90" length="290.25" shape="295.75,249.35 586.00,249.35"/>
    </edge>
    <edge id="xp1north-xp1north_out" from="xp1north" to="xp1north_out" priority="-1">
        <lane id="xp1north-xp1north_out_0" index="0" speed="13.90" length="1.00" shape="292.65,501.00 292.65,502.00"/>
    </edge>
    <edge id="xp1north-xp1north_turn" from="xp1north" to="xp1north_turn" priority="-1">
        <lane id="xp1north-xp1north_turn_0" index="0" speed="13.90" length="125.00" shape="289.35,501.00 289.35,376.00"/>
    </edge>
    <edge id="xp1north_out-xp1north" from="xp1north_out" to="xp1north" priority="-1">
        <lane id="xp1north_out-xp1north_0" index="0" speed="13.90" length="1.00" shape="289.35,502.00 289.35,501.00"/>
    </edge>
    <edge id="xp1north_turn-xp1" from="xp1north_turn" to="xp1" priority="-1">
        <lane id="xp1north_turn-xp1_0" index="0" speed="13.90" length="120.25" shape="289.35,376.00 289.35,255.75"/>
    </edge>
    <edge id="xp1south-xp1south_out" from="xp1south" to="xp1south_out" priority="-1">
        <lane id="xp1south-xp1south_out_0" index="0" speed="13.90" length="2.37" shape="289.35,2.37 289.35,0.00"/>
    </edge>
    <edge id="xp1south-xp1south_turn" from="xp1south" to="xp1south_turn" priority="-1">
        <lane id="xp1south-xp1south_turn_0" index="0" speed="13.90" length="109.73" shape="292.65,16.27 292.65,126.00"/>
    </edge>
    <edge id="xp1south_out-xp1south" from="xp1south_out" to="xp1south" priority="-1">
        <lane id="xp1south_out-xp1south_0" index="0" speed="13.90" length="2.37" shape="292.65,0.00 292.65,2.37"/>
    </edge>
    <edge id="xp1south_turn-xp1" from="xp1south_turn" to="xp1" priority="-1">
        <lane id="xp1south_turn-xp1_0" index="0" speed="13.90" length="120.25" shape="292.65,126.00 292.65,246.25"/>
    </edge>
    <edge id="xp1turn-xp1" from="xp1turn" to="xp1" priority="-1">
        <lane id="xp1turn-xp1_0" index="0" speed="13.90" length="115.14" shape="410.89,252.65 295.75,252.65"/>
    </edge>
    <edge id="xp1west-xp1west_out" from="xp1west" to="xp1west_out" priority="-1">
        <lane id="xp1west-xp1west_out_0" index="0" speed="13.90" length="6.25" shape="6.25,252.65 0.00,252.65"/>
    </edge>
    <edge id="xp1west-xp1west_turn" from="xp1west" to="xp1west_turn" priority="-1">
        <lane id="xp1west-xp1west_turn_0" index="0" speed="13.90" length="154.75" shape="11.25,249.35 166.00,249.35"/>
    </edge>
    <edge id="xp1west_out-xp1west" from="xp1west_out" to="xp1west" priority="-1">
        <lane id="xp1west_out-xp1west_0" index="0" speed="13.90" length="6.25" shape="0.00,249.35 6.25,249.35"/>
    </edge>
    <edge id="xp1west_turn-xp1" from="xp1west_turn" to="xp1" priority="-1">
        <lane id="xp1west_turn-xp1_0" index="0" speed="13.90" length="120.25" shape="166.00,249.35 286.25,249.35"/>
    </edge>
    <edge id="xp2-xp1turn" from="xp2" to="xp1turn" priority="-1">
        <lane id="xp2-xp1turn_0" index="0" speed="13.90" length="288.78" shape="706.25,252.65 417.47,252.65"/>
    </edge>
    <edge id="xp2-xp2east" from="xp2" to="xp2east" priority="-1">
        <lane id="xp2-xp2east_0" index="0" speed="13.90" length="285.25" shape="715.75,249.35 1001.00,249.35"/>
    </edge>
    <edge id="xp2-xp2north" from="xp2" to="xp2north" priority="-1">
        <lane id="xp2-xp2north_0" index="0" speed="13.90" length="245.25" shape="712.65,255.75 712.65,501.00"/>
    </edge>
    <edge id="xp2-xp2south" from="xp2" to="xp2south" priority="-1">
        <lane id="xp2-xp2south_0" index="0" speed="13.90" length="245.25" shape="709.35,246.25 709.35,1.00"/>
    </edge>
    <edge id="xp2east-xp2east_out" from="xp2east" to="xp2east_out" priority="-1">
        <lane id="xp2east-xp2east_out_0" index="0" speed="13.90" length="1.00" shape="1001.00,249.35 1002.00,249.35"/>
    </edge>
    <edge id="xp2east-xp2east_turn" from="xp2east" to="xp2east_turn" priority="-1">
        <lane id="xp2east-xp2east_turn_0" index="0" speed="13.90" length="165.00" shape="1001.00,252.65 836.00,252.65"/>
    </edge>
    <edge id="xp2east_out-xp2east" from="xp2east_out" to="xp2east" priority="-1">
        <lane id="xp2east_out-xp2east_0" index="0" speed="13.90" length="1.00" shape="1002.00,252.65 1001.00,252.65"/>
    </edge>
    <edge id="xp2east_turn-xp2" from="xp2east_turn" to="xp2" priority="-1">
        <lane id="xp2east_turn-xp2_0" index="0" speed="13.90" length="120.25" shape="836.00,252.65 715.75,252.65"/>
    </edge>
    <edge id="xp2north-xp2north_out" from="xp2north" to="xp2north_out" priority="-1">
        <lane id="xp2north-xp2north_out_0" index="0" speed="13.90" length="1.00" shape="712.65,501.00 712.65,502.00"/>
    </edge>
    <edge id="xp2north-xp2north_turn" from="xp2north" to="xp2north_turn" priority="-1">
        <lane id="xp2north-xp2north_turn_0" index="0" speed="13.90" length="125.00" shape="709.35,501.00 709.35,376.00"/>
    </edge>
    <edge id="xp2north_out-xp2north" from="xp2north_out" to="xp2north" priority="-1">
        <lane id="xp2north_out-xp2north_0" index="0" speed="13.90" length="1.00" shape="709.35,502.00 709.35,501.00"/>
    </edge>
    <edge id="xp2north_turn-xp2" from="xp2north_turn" to="xp2" priority="-1">
        <lane id="xp2north_turn-xp2_0" index="0" speed="13.90" length="120.25" shape="709.35,376.00 709.35,255.75"/>
    </edge>
    <edge id="xp2south-xp2south_out" from="xp2south" to="xp2south_out" priority="-1">
        <lane id="xp2south-xp2south_out_0" index="0" speed="13.90" length="1.00" shape="709.35,1.00 709.35,0.00"/>
    </edge>
    <edge id="xp2south-xp2south_turn" from="xp2south" to="xp2south_turn" priority="-1">
        <lane id="xp2south-xp2south_turn_0" index="0" speed="13.90" length="125.00" shape="712.65,1.00 712.65,126.00"/>
    </edge>
    <edge id="xp2south_out-xp2south" from="xp2south_out" to="xp2south" priority="-1">
        <lane id="xp2south_out-xp2south_0" index="0" speed="13.90" length="1.00" shape="712.65,0.00 712.65,1.00"/>
    </edge>
    <edge id="xp2south_turn-xp2" from="xp2south_turn" to="xp2" priority="-1">
        <lane id="xp2south_turn-xp2_0" index="0" speed="13.90" length="120.25" shape="712.65,126.00 712.65,246.25"/>
    </edge>
    <edge id="xp2turn-xp2" from="xp2turn" to="xp2" priority="-1">
        <lane id="xp2turn-xp2_0" index="0" speed="13.90" length="120.25" shape="586.00,249.35 706.25,249.35"/>
    </edge>

    <tlLogic id="xp1" type="static" programID="0" offset="0">
        <phase duration="31" state="rrrrGGggrrrrGGgg"/>
        <phase duration="4" state="rrrryyggrrrryygg"/>
        <phase duration="6" state="rrrrrrGGrrrrrrGG"/>
        <phase duration="4" state="rrrrrryyrrrrrryy"/>
        <phase duration="31" state="GGggrrrrGGggrrrr"/>
        <phase duration="4" state="yyggrrrryyggrrrr"/>
        <phase duration="6" state="rrGGrrrrrrGGrrrr"/>
        <phase duration="4" state="rryyrrrrrryyrrrr"/>
    </tlLogic>
    <tlLogic id="xp2" type="static" programID="0" offset="0">
        <phase duration="31" state="rrrrGGggrrrrGGgg"/>
        <phase duration="4" state="rrrryyggrrrryygg"/>
        <phase duration="6" state="rrrrrrGGrrrrrrGG"/>
        <phase duration="4" state="rrrrrryyrrrrrryy"/>
        <phase duration="31" state="GGggrrrrGGggrrrr"/>
        <phase duration="4" state="yyggrrrryyggrrrr"/>
        <phase duration="6" state="rrGGrrrrrrGGrrrr"/>
        <phase duration="4" state="rryyrrrrrryyrrrr"/>
    </tlLogic>

    <junction id="xp1" type="traffic_light" x="291.00" y="251.00" incLanes="xp1north_turn-xp1_0 xp1turn-xp1_0 xp1south_turn-xp1_0 xp1west_turn-xp1_0" intLanes=":xp1_0_0 :xp1_1_0 :xp1_16_0 :xp1_17_0 :xp1_4_0 :xp1_5_0 :xp1_18_0 :xp1_19_0 :xp1_8_0 :xp1_9_0 :xp1_20_0 :xp1_21_0 :xp1_12_0 :xp1_13_0 :xp1_22_0 :xp1_23_0" shape="287.75,255.75 294.25,255.75 295.75,254.25 295.75,247.75 294.25,246.25 287.75,246.25 286.25,247.75 286.25,254.25">
        <request index="0" response="0000000000000000" foes="1000010000100000" cont="0"/>
        <request index="1" response="0000000000000000" foes="0111110001100000" cont="0"/>
        <request index="2" response="0000001100000000" foes="0110001111100000" cont="1"/>
        <request index="3" response="0100001000010000" foes="0100001000010000" cont="1"/>
        <request index="4" response="0000001000000000" foes="0100001000001000" cont="0"/>
        <request index="5" response="0000011000000111" foes="1100011000000111" cont="0"/>
        <request index="6" response="0011011000000110" foes="0011111000000110" cont="1"/>
        <request index="7" response="0010000100000100" foes="0010000100000100" cont="1"/>
        <request index="8" response="0000000000000000" foes="0010000010000100" cont="0"/>
        <request index="9" response="0000000000000000" foes="0110000001111100" cont="0"/>
        <request index="10" response="0000000000000011" foes="1110000001100011" cont="1"/>