<?xml version="1.0"?>

<routes>
<vTypeDistribution id="ambulance">
 		<vType id="type3" accel="1.8" decel="4.5" sigma="0.5" minGap="1.5" length="10" maxSpeed="90" probability="1.00"/>
</vTypeDistribution>
	  
<vTypeDistribution id="dist">
      	<vType id="type1" accel="1.0" decel="4.5" sigma="0.5" maxSpeed="9" probability="0.00" />
	    <vType class="passenger" id="type2" accel="2.0" decel="4.5" sigma="0.5" length="6.5" maxSpeed="40" minGap="1.5" probability="1.00" guiShape="passenger/hatchback" />" 
</vTypeDistribution>

<!--
   <vehicle id="1-4" type="dist" depart="1" >
      <route edges="xp1west_out-xp1west xp1west-xp1west_turn xp1west_turn-xp1 xp1-xp2turn xp2turn-xp2 xp2-xp2south xp2south-xp2south_out"/>
   </vehicle>
-->

   <!--
   <vehicle id="1-5" type="dist" depart="1" >
      <route edges="xp1west_out-xp1west xp1west-xp1west_turn xp1west_turn-xp1 xp1-xp2turn xp2turn-xp2 xp2-xp2north xp2north-xp2north_out"/>
   </vehicle>
   <vehicle id="1-6" type="dist" depart="1" repno="800" period="7">
      <route edges="xp1west_out-xp1west xp1west-xp1west_turn xp1west_turn-xp1 xp1-xp2turn xp2turn-xp2 xp2-xp2east xp2east-xp2east_out"/>
   </vehicle>
   <vehicle id="2-1" type="dist" depart="1" repno="50" period="144">
      <route edges="xp1south_out-xp1south xp1south-xp1south_turn xp1south_turn-xp1 xp1-xp1west xp1west-xp1west_out"/>
   </vehicle>
   <vehicle id="2-3" type="dist" depart="1" repno="50" period="144">
      <route edges="xp1south_out-xp1south xp1south-xp1south_turn xp1south_turn-xp1 xp1-xp1north xp1north-xp1north_out"/>
   </vehicle>
   <vehicle id="2-6" type="dist" depart="1" >
      <route edges="xp1south_out-xp1south xp1south-xp1south_turn xp1south_turn-xp1 xp1-xp2turn xp2turn-xp2 xp2-xp2east xp2east-xp2east_out"/>
   </vehicle>
   <vehicle id="3-1" type="dist" depart="1" repno="50" period="144">
      <route edges="xp1north_out-xp1north xp1north-xp1north_turn xp1north_turn-xp1 xp1-xp1west xp1west-xp1west_out"/>
   </vehicle>
   <vehicle id="3-2" type="dist" depart="1" repno="50" period="144">
      <route edges="xp1north_out-xp1north xp1north-xp1north_turn xp1north_turn-xp1 xp1-xp1south xp1south-xp1south_out"/>
   </vehicle>
   <vehicle id="3-6" type="dist" depart="1" >
      <route edges="xp1north_out-xp1north xp1north-xp1north_turn xp1north_turn-xp1 xp1-xp2turn xp2turn-xp2 xp2-xp2east xp2east-xp2east_out"/>
   </vehicle>
   <vehicle id="4-1" type="dist" depart="1" >
      <route edges="xp2south_out-xp2south xp2south-xp2south_turn xp2south_turn-xp2 xp2-xp1turn xp1turn-xp1 xp1-xp1west xp1west-xp1west_out"/>
   </vehicle>
   <vehicle id="4-5" type="dist" depart="1" repno="50" period="144">
      <route edges="xp2south_out-xp2south xp2south-xp2south_turn xp2south_turn-xp2 xp2-xp2north xp2north-xp2north_out"/>
   </vehicle>
   <vehicle id="4-6" type="dist" depart="1" repno="50" period="144">
      <route edges="xp2south_out-xp2south xp2south-xp2south_turn xp2south_turn-xp2 xp2-xp2east xp2east-xp2east_out"/>
   </vehicle>
   <vehicle id="5-1" type="dist" depart="1"  color="1,0,0" >
      <route edges="xp2north_out-xp2north xp2north-xp2north_turn xp2north_turn-xp2 xp2-xp1turn xp1turn-xp1 xp1-xp1west xp1west-xp1west_out"/>
   </vehicle>
   <vehicle id="5-4" type="dist" depart="1" repno="50" period="144" >
      <route edges="xp2north_out-xp2north xp2north-xp2north_turn xp2north_turn-xp2 xp2-xp2south xp2south-xp2south_out"/>
   </vehicle>
   <vehicle id="5-6" type="dist" depart="1" repno="50" period="144">
      <route edges="xp2north_out-xp2north xp2north-xp2north_turn xp2north_turn-xp2 xp2-xp2east xp2east-xp2east_out"/>
   </vehicle>
   <vehicle id="6-1" type="dist" depart="1" repno="800" period="7">
      <route edges="xp2east_out-xp2east xp2east-xp2east_turn xp2east_turn-xp2 xp2-xp1turn xp1turn-xp1 xp1-xp1west xp1west-xp1west_out"/>
   </vehicle>
   <vehicle id="6-2" type="dist" depart="1" >
      <route edges="xp2east_out-xp2east xp2east-xp2east_turn xp2east_turn-xp2 xp2-xp1turn xp1turn-xp1 xp1-xp1south xp1south-xp1south_out"/>
   </vehicle>
   <vehicle id="6-3" type="dist" depart="1" >
      <route edges="xp2east_out-xp2east xp2east-xp2east_turn xp2east_turn-xp2 xp2-xp1turn xp1turn-xp1 xp1-xp1north xp1north-xp1north_out"/>
   </vehicle>
   <vehicle id="6-4" type="dist" depart="1" repno="50" period="144">
      <route edges="xp2east_out-xp2east xp2east-xp2east_turn xp2east_turn-xp2 xp2-xp2south xp2south-xp2south_out"/>
   </vehicle>
   <vehicle id="6-5" type="dist" depart="1" repno="50" period="144">
      <route edges="xp2east_out-xp2east xp2east-xp2east_turn xp2east_turn-xp2 xp2-xp2north xp2north-xp2north_out"/>
   </vehicle>
   -->

   <vehicle id="AMBULANCE" type="ambulance" depart="1" repno="80" period="100" color="1,0,0">
      <route edges="xp2north_out-xp2north xp2north-xp2north_turn xp2north_turn-xp2 xp2-xp1turn xp1turn-xp1 xp1-xp1west xp1west-xp1west_out"/>
   </vehicle>
   
</routes>
